234
0.0000 16.6655 16.6655   16.6655 0.0000 16.6655  16.6655 16.6655 0.0000
H      16.84615000       5.88225000      13.81003000 
H      16.48485000       5.88225000      19.52097000 
H      16.48485000      27.44875000      13.81003000 
H      16.84615000      27.44875000      19.52097000 
H      27.44875000      19.52097000      16.84615000 
H      27.44875000      13.81003000      16.48485000 
H       5.88225000      19.52097000      16.48485000 
H       5.88225000      13.81003000      16.84615000 
H      13.81003000      16.48485000      27.44875000 
H      19.52097000      16.84615000      27.44875000 
H      13.81003000      16.84615000       5.88225000 
H      19.52097000      16.48485000       5.88225000 
H      13.81003000       5.88225000      16.84615000 
H      19.52097000       5.88225000      16.48485000 
H      13.81003000      27.44875000      16.48485000 
H      19.52097000      27.44875000      16.84615000 
H      16.84615000      19.52097000      27.44875000 
H      16.48485000      13.81003000      27.44875000 
H      16.48485000      19.52097000       5.88225000 
H      16.84615000      13.81003000       5.88225000 
H      27.44875000      16.48485000      13.81003000 
H      27.44875000      16.84615000      19.52097000 
H       5.88225000      16.84615000      13.81003000 
H       5.88225000      16.48485000      19.52097000 
H      16.92715000       7.62447000      12.09249000 
H      16.40385000       7.62447000      21.23851000 
H      16.40385000      25.70653000      12.09249000 
H      16.92715000      25.70653000      21.23851000 
H      25.70653000      21.23851000      16.92715000 
H      25.70653000      12.09249000      16.40385000 
H       7.62447000      21.23851000      16.40385000 
H       7.62447000      12.09249000      16.92715000 
H      12.09249000      16.40385000      25.70653000 
H      21.23851000      16.92715000      25.70653000 
H      12.09249000      16.92715000       7.62447000 
H      21.23851000      16.40385000       7.62447000 
H      12.09249000       7.62447000      16.92715000 
H      21.23851000       7.62447000      16.40385000 
H      12.09249000      25.70653000      16.40385000 
H      21.23851000      25.70653000      16.92715000 
H      16.92715000      21.23851000      25.70653000 
H      16.40385000      12.09249000      25.70653000 
H      16.40385000      21.23851000       7.62447000 
H      16.92715000      12.09249000       7.62447000 
H      25.70653000      16.40385000      12.09249000 
H      25.70653000      16.92715000      21.23851000 
H       7.62447000      16.92715000      12.09249000 
H       7.62447000      16.40385000      21.23851000 
H      16.95981000       9.01004000      10.70158000 
H      16.37119000       9.01004000      22.62942000 
H      16.37119000      24.32096000      10.70158000 
H      16.95981000      24.32096000      22.62942000 
H      24.32096000      22.62942000      16.95981000 
H      24.32096000      10.70158000      16.37119000 
H       9.01004000      22.62942000      16.37119000 
H       9.01004000      10.70158000      16.95981000 
H      10.70158000      16.37119000      24.32096000 
H      22.62942000      16.95981000      24.32096000 
H      10.70158000      16.95981000       9.01004000 
H      22.62942000      16.37119000       9.01004000 
H      10.70158000       9.01004000      16.95981000 
H      22.62942000       9.01004000      16.37119000 
H      10.70158000      24.32096000      16.37119000 
H      22.62942000      24.32096000      16.95981000 
H      16.95981000      22.62942000      24.32096000 
H      16.37119000      10.70158000      24.32096000 
H      16.37119000      22.62942000       9.01004000 
H      16.95981000      10.70158000       9.01004000 
H      24.32096000      16.37119000      10.70158000 
H      24.32096000      16.95981000      22.62942000 
H       9.01004000      16.95981000      10.70158000 
H       9.01004000      16.37119000      22.62942000 
C      16.86549000       5.60794000      12.76077000 
C      16.46551000       5.60794000      20.57023000 
C      16.46551000      27.72306000      12.76077000 
C      16.86549000      27.72306000      20.57023000 
C      27.72306000      20.57023000      16.86549000 
C      27.72306000      12.76077000      16.46551000 
C       5.60794000      20.57023000      16.46551000 
C       5.60794000      12.76077000      16.86549000 
C      12.76077000      16.46551000      27.72306000 
C      20.57023000      16.86549000      27.72306000 
C      12.76077000      16.86549000       5.60794000 
C      20.57023000      16.46551000       5.60794000 
C      12.76077000       5.60794000      16.86549000 
C      20.57023000       5.60794000      16.46551000 
C      12.76077000      27.72306000      16.46551000 
C      20.57023000      27.72306000      16.86549000 
C      16.86549000      20.57023000      27.72306000 
C      16.46551000      12.76077000      27.72306000 
C      16.46551000      20.57023000       5.60794000 
C      16.86549000      12.76077000       5.60794000 
C      27.72306000      16.46551000      12.76077000 
C      27.72306000      16.86549000      20.57023000 
C       5.60794000      16.86549000      12.76077000 
C       5.60794000      16.46551000      20.57023000 
C      16.91048000       6.58787000      11.77584000 
C      16.42052000       6.58787000      21.55516000 
C      16.42052000      26.74313000      11.77584000 
C      16.91048000      26.74313000      21.55516000 
C      26.74313000      21.55516000      16.91048000 
C      26.74313000      11.77584000      16.42052000 
C       6.58787000      21.55516000      16.42052000 
C       6.58787000      11.77584000      16.91048000 
C      11.77584000      16.42052000      26.74313000 
C      21.55516000      16.91048000      26.74313000 
C      11.77584000      16.91048000       6.58787000 
C      21.55516000      16.42052000       6.58787000 
C      11.77584000       6.58787000      16.91048000 
C      21.55516000       6.58787000      16.42052000 
C      11.77584000      26.74313000      16.42052000 
C      21.55516000      26.74313000      16.91048000 
C      16.91048000      21.55516000      26.74313000 
C      16.42052000      11.77584000      26.74313000 
C      16.42052000      21.55516000       6.58787000 
C      16.91048000      11.77584000       6.58787000 
C      26.74313000      16.42052000      11.77584000 
C      26.74313000      16.91048000      21.55516000 
C       6.58787000      16.91048000      11.77584000 
C       6.58787000      16.42052000      21.55516000 
C      16.95881000       8.68439000       9.66766000 
C      16.37219000       8.68439000      23.66334000 
C      16.37219000      24.64661000       9.66766000 
C      16.95881000      24.64661000      23.66334000 
C      24.64661000      23.66334000      16.95881000 
C      24.64661000       9.66766000      16.37219000 
C       8.68439000      23.66334000      16.37219000 
C       8.68439000       9.66766000      16.95881000 
C       9.66766000      16.37219000      24.64661000 
C      23.66334000      16.95881000      24.64661000 
C       9.66766000      16.95881000       8.68439000 
C      23.66334000      16.37219000       8.68439000 
C       9.66766000       8.68439000      16.95881000 
C      23.66334000       8.68439000      16.37219000 
C       9.66766000      24.64661000      16.37219000 
C      23.66334000      24.64661000      16.95881000 
C      16.95881000      23.66334000      24.64661000 
C      16.37219000       9.66766000      24.64661000 
C      16.37219000      23.66334000       8.68439000 
C      16.95881000       9.66766000       8.68439000 
C      24.64661000      16.37219000       9.66766000 
C      24.64661000      16.95881000      23.66334000 
C       8.68439000      16.95881000       9.66766000 
C       8.68439000      16.37219000      23.66334000 
O      16.72050000       3.58142000      14.68231000 
O      16.61050000       3.58142000      18.64869000 
O      16.61050000      29.74958000      14.68231000 
O      16.72050000      29.74958000      18.64869000 
O      29.74958000      18.64869000      16.72050000 
O      29.74958000      14.68231000      16.61050000 
O       3.58142000      18.64869000      16.61050000 
O       3.58142000      14.68231000      16.72050000 
O      14.68231000      16.61050000      29.74958000 
O      18.64869000      16.72050000      29.74958000 
O      14.68231000      16.72050000       3.58142000 
O      18.64869000      16.61050000       3.58142000 
O      14.68231000       3.58142000      16.72050000 
O      18.64869000       3.58142000      16.61050000 
O      14.68231000      29.74958000      16.61050000 
O      18.64869000      29.74958000      16.72050000 
O      16.72050000      18.64869000      29.74958000 
O      16.61050000      14.68231000      29.74958000 
O      16.61050000      18.64869000       3.58142000 
O      16.72050000      14.68231000       3.58142000 
O      29.74958000      16.61050000      14.68231000 
O      29.74958000      16.72050000      18.64869000 
O       3.58142000      16.72050000      14.68231000 
O       3.58142000      16.61050000      18.64869000 
H       1.96653000       1.96653000       1.96653000 
H      14.69897000       1.96653000      14.69897000 
H      14.69897000      14.69897000       1.96653000 
H       1.96653000      14.69897000      14.69897000 
C      16.76149000      19.86128000      30.13522000 
C      33.23501000      19.86128000      19.86128000 
C      33.23501000      30.13522000      30.13522000 
C      16.76149000      30.13522000      19.86128000 
C      30.13522000      19.86128000      16.76149000 
C      30.13522000      30.13522000      33.23501000 
C      19.86128000      19.86128000      33.23501000 
C      19.86128000      30.13522000      16.76149000 
C      30.13522000      33.23501000      30.13522000 
C      19.86128000      16.76149000      30.13522000 
C      30.13522000      16.76149000      19.86128000 
C      19.86128000      33.23501000      19.86128000 
C      16.83815000      20.91787000      29.07863000 
C      33.15835000      20.91787000      20.91787000 
C      33.15835000      29.07863000      29.07863000 
C      16.83815000      29.07863000      20.91787000 
C      29.07863000      20.91787000      16.83815000 
C      29.07863000      29.07863000      33.15835000 
C      20.91787000      20.91787000      33.15835000 
C      20.91787000      29.07863000      16.83815000 
C      29.07863000      33.15835000      29.07863000 
C      20.91787000      16.83815000      29.07863000 
C      29.07863000      16.83815000      20.91787000 
C      20.91787000      33.15835000      20.91787000 
C      16.95315000      23.97899000      26.01751000 
C      33.04335000      23.97899000      23.97899000 
C      33.04335000      26.01751000      26.01751000 
C      16.95315000      26.01751000      23.97899000 
C      26.01751000      23.97899000      16.95315000 
C      26.01751000      26.01751000      33.04335000 
C      23.97899000      23.97899000      33.04335000 
C      23.97899000      26.01751000      16.95315000 
C      26.01751000      33.04335000      26.01751000 
C      23.97899000      16.95315000      26.01751000 
C      26.01751000      16.95315000      23.97899000 
C      23.97899000      33.04335000      23.97899000 
C      16.92881000      22.92506000      27.07144000 
C      33.06769000      22.92506000      22.92506000 
C      33.06769000      27.07144000      27.07144000 
C      16.92881000      27.07144000      22.92506000 
C      27.07144000      22.92506000      16.92881000 
C      27.07144000      27.07144000      33.06769000 
C      22.92506000      22.92506000      33.06769000 
C      22.92506000      27.07144000      16.92881000 
C      27.07144000      33.06769000      27.07144000 
C      22.92506000      16.92881000      27.07144000 
C      27.07144000      16.92881000      22.92506000 
C      22.92506000      33.06769000      22.92506000 
O      15.25460000       1.41090000      15.25460000 
O       1.41090000       1.41090000       1.41090000 
O       1.41090000      15.25460000      15.25460000 
O      15.25460000      15.25460000       1.41090000 
O      17.70309000      32.29341000      17.70309000 
O      32.29341000      32.29341000      32.29341000 
O      32.29341000      17.70309000      17.70309000 
O      17.70309000      17.70309000      32.29341000 
Zr      30.80784000      16.66550000      16.66550000 
Zr       2.52316000      16.66550000      16.66550000 
Zr      16.66550000      16.66550000      30.80784000 
Zr      16.66550000      16.66550000       2.52316000 
Zr      16.66550000       2.52316000      16.66550000 
Zr      16.66550000      30.80784000      16.66550000 
