696
26.7743 0.0 0.0 0.0 26.7743 0.0 0.0 0.0 26.7743
H      19.82637000      24.64280000      25.90414000   
H       6.43922000      22.85722000      14.29881000   
H      14.25731000      24.64280000      20.33508000   
H      12.47549000      22.85722000      20.33508000   
H      14.29881000       3.91708000      20.33508000   
H       0.91166000      22.85722000      19.82637000   
H      25.86264000       3.91708000      19.82637000   
H      17.30423000       6.43922000      25.86264000   
H      20.33508000       0.91166000      17.30423000   
H       9.47007000      20.33508000      25.86264000   
H       6.94793000      25.86264000      22.85722000   
H      22.85722000       6.43922000      14.29881000   
H       6.43922000      25.86264000      17.30423000   
H       3.91708000      20.33508000      14.29881000   
H      19.82637000       0.91166000      22.85722000   
H      12.51699000       2.13150000      20.33508000   
H      25.90414000      24.64280000      19.82637000   
H       0.87016000       2.13150000      19.82637000   
H       2.13150000       6.43922000      14.25731000   
H      20.33508000      25.90414000      15.51865000   
H      24.64280000      20.33508000      14.25731000   
H       6.94793000       0.87016000      24.64280000   
H      11.25565000       6.43922000      25.90414000   
H       6.43922000       0.87016000      15.51865000   
H      15.51865000      20.33508000      25.90414000   
H      19.82637000      25.90414000      24.64280000   
H      20.33508000       3.91708000      14.29881000   
H       6.94793000      22.85722000      25.86264000   
H      19.82637000       3.91708000      25.86264000   
H       3.91708000      25.86264000      19.82637000   
H       0.91166000      20.33508000      17.30423000   
H      22.85722000       0.91166000      19.82637000   
H      14.29881000       6.43922000      22.85722000   
H       9.47007000      25.86264000      20.33508000   
H      25.86264000       6.43922000      17.30423000   
H      17.30423000       0.91166000      20.33508000   
H      12.47549000      20.33508000      22.85722000   
H       6.94793000       2.13150000      25.90414000   
H      20.33508000      24.64280000      14.25731000   
H       6.43922000       2.13150000      14.25731000   
H       2.13150000       0.87016000      19.82637000   
H      25.90414000      20.33508000      15.51865000   
H      24.64280000      25.90414000      19.82637000   
H      12.51699000       6.43922000      24.64280000   
H      11.25565000       0.87016000      20.33508000   
H       0.87016000       6.43922000      15.51865000   
H      15.51865000      25.90414000      20.33508000   
H      14.25731000      20.33508000      24.64280000   
H       4.73316000      18.12031000      22.04114000   
H       4.73316000      22.04114000      18.12031000   
H       8.65399000      22.04114000      22.04114000   
H       8.65399000      18.12031000      18.12031000   
C       6.65877000      24.90813000      13.57109000   
C       6.64163000      23.91909000      14.54782000   
C      12.86746000      26.25461000      19.86385000   
C      10.87572000      24.26287000      19.92061000   
C       9.83018000      23.21733000      19.98755000   
C      13.20321000      24.90813000      20.11553000   
C      12.22648000      23.91909000      20.13267000   
C      14.54782000       2.85521000      20.13267000   
C       1.16067000      23.91909000      20.02878000   
C      25.61363000       2.85521000      20.02878000   
C      16.24236000       6.64163000      25.61363000   
C      20.13267000       1.16067000      16.24236000   
C      10.53194000      20.13267000      25.61363000   
C       6.74552000      25.61363000      23.91909000   
C      23.91909000       6.64163000      14.54782000   
C       6.64163000      25.61363000      16.24236000   
C       2.85521000      20.13267000      14.54782000   
C      20.02878000       1.16067000      23.91909000   
C      13.57109000       1.86617000      20.11553000   
C       0.18394000      24.90813000      20.04592000   
C      26.59036000       1.86617000      20.04592000   
C      15.25332000       6.65877000      26.59036000   
C      20.11553000       0.18394000      15.25332000   
C      11.52098000      20.11553000      26.59036000   
C       6.72838000      26.59036000      24.90813000   
C      24.90813000       6.65877000      13.57109000   
C       6.65877000      26.59036000      15.25332000   
C       1.86617000      20.11553000      13.57109000   
C      20.04592000       0.18394000      24.90813000   
C       3.55697000      16.94412000      19.98755000   
C       3.55697000      23.21733000      20.17390000   
C       9.83018000      16.94412000      20.17390000   
C       3.55697000      20.17390000      23.21733000   
C       6.60040000      16.94412000      16.94412000   
C       9.83018000      19.98755000      23.21733000   
C       6.60040000      23.21733000      23.21733000   
C       9.83018000      20.17390000      16.94412000   
C       6.78675000      23.21733000      16.94412000   
C       3.55697000      19.98755000      16.94412000   
C       6.78675000      16.94412000      23.21733000   
C      15.89858000       2.51143000      19.92061000   
C       2.51143000      24.26287000      20.24084000   
C      24.26287000       2.51143000      20.24084000   
C      15.89858000       6.85369000      24.26287000   
C      19.92061000       2.51143000      15.89858000   
C      10.87572000      19.92061000      24.26287000   
C       6.53346000      24.26287000      24.26287000   
C      24.26287000       6.85369000      15.89858000   
C       6.85369000      24.26287000      15.89858000   
C       2.51143000      19.92061000      15.89858000   
C      20.24084000       2.51143000      24.26287000   
C      13.90684000       0.51969000      19.86385000   
C       0.51969000      26.25461000      20.29760000   
C      26.25461000       0.51969000      20.29760000   
C      13.90684000       6.91045000      26.25461000   
C      19.86385000       0.51969000      13.90684000   
C      12.86746000      19.86385000      26.25461000   
C       6.47670000      26.25461000      26.25461000   
C      26.25461000       6.91045000      13.90684000   
C       6.91045000      26.25461000      13.90684000   
C       0.51969000      19.86385000      13.90684000   
C      20.29760000       0.51969000      26.25461000   
C      20.13267000       2.85521000      14.54782000   
C       6.74552000      23.91909000      25.61363000   
C      20.02878000       2.85521000      25.61363000   
C       2.85521000      25.61363000      20.02878000   
C       1.16067000      20.13267000      16.24236000   
C      23.91909000       1.16067000      20.02878000   
C      14.54782000       6.64163000      23.91909000   
C      10.53194000      25.61363000      20.13267000   
C      25.61363000       6.64163000      16.24236000   
C      16.24236000       1.16067000      20.13267000   
C      12.22648000      20.13267000      23.91909000   
C      20.11553000       1.86617000      13.57109000   
C       6.72838000      24.90813000      26.59036000   
C      20.04592000       1.86617000      26.59036000   
C       1.86617000      26.59036000      20.04592000   
C       0.18394000      20.11553000      15.25332000   
C      24.90813000       0.18394000      20.04592000   
C      13.57109000       6.65877000      24.90813000   
C      11.52098000      26.59036000      20.11553000   
C      26.59036000       6.65877000      15.25332000   
C      15.25332000       0.18394000      20.11553000   
C      13.20321000      20.11553000      24.90813000   
O       5.65420000      19.04135000      19.04135000   
O       8.08370000      21.47085000      21.47085000   
O       6.71205000      21.99536000      16.54036000   
O      10.23394000      21.99536000      20.06225000   
O       3.15321000      18.16609000      20.06225000   
O       3.15321000      21.99536000      20.09920000   
O      10.23394000      18.16609000      20.09920000   
O       4.77894000      20.09920000      23.62109000   
O       6.67510000      16.54036000      18.16609000   
O       8.60821000      20.06225000      23.62109000   
O       6.67510000      23.62109000      21.99536000   
O       8.60821000      20.09920000      16.54036000   
O       6.71205000      23.62109000      18.16609000   
O       4.77894000      20.06225000      16.54036000   
O       6.71205000      16.54036000      21.99536000   
O       6.67510000      18.16609000      16.54036000   
O       6.67510000      21.99536000      23.62109000   
O       6.71205000      18.16609000      23.62109000   
O       4.77894000      23.62109000      20.09920000   
O       3.15321000      20.06225000      18.16609000   
O       8.60821000      16.54036000      20.09920000   
O       3.15321000      20.09920000      21.99536000   
O       8.60821000      23.62109000      20.06225000   
O      10.23394000      20.09920000      18.16609000   
O       4.77894000      16.54036000      20.06225000   
O      10.23394000      20.06225000      21.99536000   
O       5.30345000      18.69060000      21.47085000   
O       5.30345000      21.47085000      18.69060000   
O       8.08370000      18.69060000      18.69060000   
O       7.73295000      21.12010000      19.04135000   
O       7.73295000      19.04135000      21.12010000   
O       5.65420000      21.12010000      21.12010000   
Zr       6.69358000      20.08073000      22.56163000   
Zr       6.69358000      20.08073000      17.59982000   
Zr       6.69358000      17.59982000      20.08073000   
Zr       9.17448000      20.08073000      20.08073000   
Zr       6.69358000      22.56163000      20.08073000   
Zr       4.21267000      20.08073000      20.08073000   
H      19.82637000      11.25565000      12.51699000   
H       6.43922000       9.47007000       0.91166000   
H      14.25731000      11.25565000       6.94793000   
H      12.47549000       9.47007000       6.94793000   
H      14.29881000      17.30423000       6.94793000   
H       0.91166000       9.47007000       6.43922000   
H      25.86264000      17.30423000       6.43922000   
H      17.30423000      19.82637000      12.47549000   
H      20.33508000      14.29881000       3.91708000   
H       9.47007000       6.94793000      12.47549000   
H       6.94793000      12.47549000       9.47007000   
H      22.85722000      19.82637000       0.91166000   
H       6.43922000      12.47549000       3.91708000   
H       3.91708000       6.94793000       0.91166000   
H      19.82637000      14.29881000       9.47007000   
H      12.51699000      15.51865000       6.94793000   
H      25.90414000      11.25565000       6.43922000   
H       0.87016000      15.51865000       6.43922000   
H       2.13150000      19.82637000       0.87016000   
H      20.33508000      12.51699000       2.13150000   
H      24.64280000       6.94793000       0.87016000   
H       6.94793000      14.25731000      11.25565000   
H      11.25565000      19.82637000      12.51699000   
H       6.43922000      14.25731000       2.13150000   
H      15.51865000       6.94793000      12.51699000   
H      19.82637000      12.51699000      11.25565000   
H      20.33508000      17.30423000       0.91166000   
H       6.94793000       9.47007000      12.47549000   
H      19.82637000      17.30423000      12.47549000   
H       3.91708000      12.47549000       6.43922000   
H       0.91166000       6.94793000       3.91708000   
H      22.85722000      14.29881000       6.43922000   
H      14.29881000      19.82637000       9.47007000   
H       9.47007000      12.47549000       6.94793000   
H      25.86264000      19.82637000       3.91708000   
H      17.30423000      14.29881000       6.94793000   
H      12.47549000       6.94793000       9.47007000   
H       6.94793000      15.51865000      12.51699000   
H      20.33508000      11.25565000       0.87016000   
H       6.43922000      15.51865000       0.87016000   
H       2.13150000      14.25731000       6.43922000   
H      25.90414000       6.94793000       2.13150000   
H      24.64280000      12.51699000       6.43922000   
H      12.51699000      19.82637000      11.25565000   
H      11.25565000      14.25731000       6.94793000   
H       0.87016000      19.82637000       2.13150000   
H      15.51865000      12.51699000       6.94793000   
H      14.25731000       6.94793000      11.25565000   
H       4.73316000       4.73316000       8.65399000   
H       4.73316000       8.65399000       4.73316000   
H       8.65399000       8.65399000       8.65399000   
H       8.65399000       4.73316000       4.73316000   
C       6.65877000      11.52098000       0.18394000   
C       6.64163000      10.53194000       1.16067000   
C      12.86746000      12.86746000       6.47670000   
C      10.87572000      10.87572000       6.53346000   
C       9.83018000       9.83018000       6.60040000   
C      13.20321000      11.52098000       6.72838000   
C      12.22648000      10.53194000       6.74552000   
C      14.54782000      16.24236000       6.74552000   
C       1.16067000      10.53194000       6.64163000   
C      25.61363000      16.24236000       6.64163000   
C      16.24236000      20.02878000      12.22648000   
C      20.13267000      14.54782000       2.85521000   
C      10.53194000       6.74552000      12.22648000   
C       6.74552000      12.22648000      10.53194000   
C      23.91909000      20.02878000       1.16067000   
C       6.64163000      12.22648000       2.85521000   
C       2.85521000       6.74552000       1.16067000   
C      20.02878000      14.54782000      10.53194000   
C      13.57109000      15.25332000       6.72838000   
C       0.18394000      11.52098000       6.65877000   
C      26.59036000      15.25332000       6.65877000   
C      15.25332000      20.04592000      13.20321000   
C      20.11553000      13.57109000       1.86617000   
C      11.52098000       6.72838000      13.20321000   
C       6.72838000      13.20321000      11.52098000   
C      24.90813000      20.04592000       0.18394000   
C       6.65877000      13.20321000       1.86617000   
C       1.86617000       6.72838000       0.18394000   
C      20.04592000      13.57109000      11.52098000   
C       3.55697000       3.55697000       6.60040000   
C       3.55697000       9.83018000       6.78675000   
C       9.83018000       3.55697000       6.78675000   
C       3.55697000       6.78675000       9.83018000   
C       6.60040000       3.55697000       3.55697000   
C       9.83018000       6.60040000       9.83018000   
C       6.60040000       9.83018000       9.83018000   
C       9.83018000       6.78675000       3.55697000   
C       6.78675000       9.83018000       3.55697000   
C       3.55697000       6.60040000       3.55697000   
C       6.78675000       3.55697000       9.83018000   
C      15.89858000      15.89858000       6.53346000   
C       2.51143000      10.87572000       6.85369000   
C      24.26287000      15.89858000       6.85369000   
C      15.89858000      20.24084000      10.87572000   
C      19.92061000      15.89858000       2.51143000   
C      10.87572000       6.53346000      10.87572000   
C       6.53346000      10.87572000      10.87572000   
C      24.26287000      20.24084000       2.51143000   
C       6.85369000      10.87572000       2.51143000   
C       2.51143000       6.53346000       2.51143000   
C      20.24084000      15.89858000      10.87572000   
C      13.90684000      13.90684000       6.47670000   
C       0.51969000      12.86746000       6.91045000   
C      26.25461000      13.90684000       6.91045000   
C      13.90684000      20.29760000      12.86746000   
C      19.86385000      13.90684000       0.51969000   
C      12.86746000       6.47670000      12.86746000   
C       6.47670000      12.86746000      12.86746000   
C      26.25461000      20.29760000       0.51969000   
C       6.91045000      12.86746000       0.51969000   
C       0.51969000       6.47670000       0.51969000   
C      20.29760000      13.90684000      12.86746000   
C      20.13267000      16.24236000       1.16067000   
C       6.74552000      10.53194000      12.22648000   
C      20.02878000      16.24236000      12.22648000   
C       2.85521000      12.22648000       6.64163000   
C       1.16067000       6.74552000       2.85521000   
C      23.91909000      14.54782000       6.64163000   
C      14.54782000      20.02878000      10.53194000   
C      10.53194000      12.22648000       6.74552000   
C      25.61363000      20.02878000       2.85521000   
C      16.24236000      14.54782000       6.74552000   
C      12.22648000       6.74552000      10.53194000   
C      20.11553000      15.25332000       0.18394000   
C       6.72838000      11.52098000      13.20321000   
C      20.04592000      15.25332000      13.20321000   
C       1.86617000      13.20321000       6.65877000   
C       0.18394000       6.72838000       1.86617000   
C      24.90813000      13.57109000       6.65877000   
C      13.57109000      20.04592000      11.52098000   
C      11.52098000      13.20321000       6.72838000   
C      26.59036000      20.04592000       1.86617000   
C      15.25332000      13.57109000       6.72838000   
C      13.20321000       6.72838000      11.52098000   
O       5.65420000       5.65420000       5.65420000   
O       8.08370000       8.08370000       8.08370000   
O       6.71205000       8.60821000       3.15321000   
O      10.23394000       8.60821000       6.67510000   
O       3.15321000       4.77894000       6.67510000   
O       3.15321000       8.60821000       6.71205000   
O      10.23394000       4.77894000       6.71205000   
O       4.77894000       6.71205000      10.23394000   
O       6.67510000       3.15321000       4.77894000   
O       8.60821000       6.67510000      10.23394000   
O       6.67510000      10.23394000       8.60821000   
O       8.60821000       6.71205000       3.15321000   
O       6.71205000      10.23394000       4.77894000   
O       4.77894000       6.67510000       3.15321000   
O       6.71205000       3.15321000       8.60821000   
O       6.67510000       4.77894000       3.15321000   
O       6.67510000       8.60821000      10.23394000   
O       6.71205000       4.77894000      10.23394000   
O       4.77894000      10.23394000       6.71205000   
O       3.15321000       6.67510000       4.77894000   
O       8.60821000       3.15321000       6.71205000   
O       3.15321000       6.71205000       8.60821000   
O       8.60821000      10.23394000       6.67510000   
O      10.23394000       6.71205000       4.77894000   
O       4.77894000       3.15321000       6.67510000   
O      10.23394000       6.67510000       8.60821000   
O       5.30345000       5.30345000       8.08370000   
O       5.30345000       8.08370000       5.30345000   
O       8.08370000       5.30345000       5.30345000   
O       7.73295000       7.73295000       5.65420000   
O       7.73295000       5.65420000       7.73295000   
O       5.65420000       7.73295000       7.73295000   
Zr       6.69358000       6.69358000       9.17448000   
Zr       6.69358000       6.69358000       4.21267000   
Zr       6.69358000       4.21267000       6.69358000   
Zr       9.17448000       6.69358000       6.69358000   
Zr       6.69358000       9.17448000       6.69358000   
Zr       4.21267000       6.69358000       6.69358000   
H       6.43922000      24.64280000      12.51699000   
H      19.82637000      22.85722000       0.91166000   
H       0.87016000      24.64280000       6.94793000   
H      25.86264000      22.85722000       6.94793000   
H       0.91166000       3.91708000       6.94793000   
H      14.29881000      22.85722000       6.43922000   
H      12.47549000       3.91708000       6.43922000   
H       3.91708000       6.43922000      12.47549000   
H       6.94793000       0.91166000       3.91708000   
H      22.85722000      20.33508000      12.47549000   
H      20.33508000      25.86264000       9.47007000   
H       9.47007000       6.43922000       0.91166000   
H      19.82637000      25.86264000       3.91708000   
H      17.30423000      20.33508000       0.91166000   
H       6.43922000       0.91166000       9.47007000   
H      25.90414000       2.13150000       6.94793000   
H      12.51699000      24.64280000       6.43922000   
H      14.25731000       2.13150000       6.43922000   
H      15.51865000       6.43922000       0.87016000   
H       6.94793000      25.90414000       2.13150000   
H      11.25565000      20.33508000       0.87016000   
H      20.33508000       0.87016000      11.25565000   
H      24.64280000       6.43922000      12.51699000   
H      19.82637000       0.87016000       2.13150000   
H       2.13150000      20.33508000      12.51699000   
H       6.43922000      25.90414000      11.25565000   
H       6.94793000       3.91708000       0.91166000   
H      20.33508000      22.85722000      12.47549000   
H       6.43922000       3.91708000      12.47549000   
H      17.30423000      25.86264000       6.43922000   
H      14.29881000      20.33508000       3.91708000   
H       9.47007000       0.91166000       6.43922000   
H       0.91166000       6.43922000       9.47007000   
H      22.85722000      25.86264000       6.94793000   
H      12.47549000       6.43922000       3.91708000   
H       3.91708000       0.91166000       6.94793000   
H      25.86264000      20.33508000       9.47007000   
H      20.33508000       2.13150000      12.51699000   
H       6.94793000      24.64280000       0.87016000   
H      19.82637000       2.13150000       0.87016000   
H      15.51865000       0.87016000       6.43922000   
H      12.51699000      20.33508000       2.13150000   
H      11.25565000      25.90414000       6.43922000   
H      25.90414000       6.43922000      11.25565000   
H      24.64280000       0.87016000       6.94793000   
H      14.25731000       6.43922000       2.13150000   
H       2.13150000      25.90414000       6.94793000   
H       0.87016000      20.33508000      11.25565000   
H      18.12031000      18.12031000       8.65399000   
H      18.12031000      22.04114000       4.73316000   
H      22.04114000      22.04114000       8.65399000   
H      22.04114000      18.12031000       4.73316000   
C      20.04592000      24.90813000       0.18394000   
C      20.02878000      23.91909000       1.16067000   
C      26.25461000      26.25461000       6.47670000   
C      24.26287000      24.26287000       6.53346000   
C      23.21733000      23.21733000       6.60040000   
C      26.59036000      24.90813000       6.72838000   
C      25.61363000      23.91909000       6.74552000   
C       1.16067000       2.85521000       6.74552000   
C      14.54782000      23.91909000       6.64163000   
C      12.22648000       2.85521000       6.64163000   
C       2.85521000       6.64163000      12.22648000   
C       6.74552000       1.16067000       2.85521000   
C      23.91909000      20.13267000      12.22648000   
C      20.13267000      25.61363000      10.53194000   
C      10.53194000       6.64163000       1.16067000   
C      20.02878000      25.61363000       2.85521000   
C      16.24236000      20.13267000       1.16067000   
C       6.64163000       1.16067000      10.53194000   
C       0.18394000       1.86617000       6.72838000   
C      13.57109000      24.90813000       6.65877000   
C      13.20321000       1.86617000       6.65877000   
C       1.86617000       6.65877000      13.20321000   
C       6.72838000       0.18394000       1.86617000   
C      24.90813000      20.11553000      13.20321000   
C      20.11553000      26.59036000      11.52098000   
C      11.52098000       6.65877000       0.18394000   
C      20.04592000      26.59036000       1.86617000   
C      15.25332000      20.11553000       0.18394000   
C       6.65877000       0.18394000      11.52098000   
C      16.94412000      16.94412000       6.60040000   
C      16.94412000      23.21733000       6.78675000   
C      23.21733000      16.94412000       6.78675000   
C      16.94412000      20.17390000       9.83018000   
C      19.98755000      16.94412000       3.55697000   
C      23.21733000      19.98755000       9.83018000   
C      19.98755000      23.21733000       9.83018000   
C      23.21733000      20.17390000       3.55697000   
C      20.17390000      23.21733000       3.55697000   
C      16.94412000      19.98755000       3.55697000   
C      20.17390000      16.94412000       9.83018000   
C       2.51143000       2.51143000       6.53346000   
C      15.89858000      24.26287000       6.85369000   
C      10.87572000       2.51143000       6.85369000   
C       2.51143000       6.85369000      10.87572000   
C       6.53346000       2.51143000       2.51143000   
C      24.26287000      19.92061000      10.87572000   
C      19.92061000      24.26287000      10.87572000   
C      10.87572000       6.85369000       2.51143000   
C      20.24084000      24.26287000       2.51143000   
C      15.89858000      19.92061000       2.51143000   
C       6.85369000       2.51143000      10.87572000   
C       0.51969000       0.51969000       6.47670000   
C      13.90684000      26.25461000       6.91045000   
C      12.86746000       0.51969000       6.91045000   
C       0.51969000       6.91045000      12.86746000   
C       6.47670000       0.51969000       0.51969000   
C      26.25461000      19.86385000      12.86746000   
C      19.86385000      26.25461000      12.86746000   
C      12.86746000       6.91045000       0.51969000   
C      20.29760000      26.25461000       0.51969000   
C      13.90684000      19.86385000       0.51969000   
C       6.91045000       0.51969000      12.86746000   
C       6.74552000       2.85521000       1.16067000   
C      20.13267000      23.91909000      12.22648000   
C       6.64163000       2.85521000      12.22648000   
C      16.24236000      25.61363000       6.64163000   
C      14.54782000      20.13267000       2.85521000   
C      10.53194000       1.16067000       6.64163000   
C       1.16067000       6.64163000      10.53194000   
C      23.91909000      25.61363000       6.74552000   
C      12.22648000       6.64163000       2.85521000   
C       2.85521000       1.16067000       6.74552000   
C      25.61363000      20.13267000      10.53194000   
C       6.72838000       1.86617000       0.18394000   
C      20.11553000      24.90813000      13.20321000   
C       6.65877000       1.86617000      13.20321000   
C      15.25332000      26.59036000       6.65877000   
C      13.57109000      20.11553000       1.86617000   
C      11.52098000       0.18394000       6.65877000   
C       0.18394000       6.65877000      11.52098000   
C      24.90813000      26.59036000       6.72838000   
C      13.20321000       6.65877000       1.86617000   
C       1.86617000       0.18394000       6.72838000   
C      26.59036000      20.11553000      11.52098000   
O      19.04135000      19.04135000       5.65420000   
O      21.47085000      21.47085000       8.08370000   
O      20.09920000      21.99536000       3.15321000   
O      23.62109000      21.99536000       6.67510000   
O      16.54036000      18.16609000       6.67510000   
O      16.54036000      21.99536000       6.71205000   
O      23.62109000      18.16609000       6.71205000   
O      18.16609000      20.09920000      10.23394000   
O      20.06225000      16.54036000       4.77894000   
O      21.99536000      20.06225000      10.23394000   
O      20.06225000      23.62109000       8.60821000   
O      21.99536000      20.09920000       3.15321000   
O      20.09920000      23.62109000       4.77894000   
O      18.16609000      20.06225000       3.15321000   
O      20.09920000      16.54036000       8.60821000   
O      20.06225000      18.16609000       3.15321000   
O      20.06225000      21.99536000      10.23394000   
O      20.09920000      18.16609000      10.23394000   
O      18.16609000      23.62109000       6.71205000   
O      16.54036000      20.06225000       4.77894000   
O      21.99536000      16.54036000       6.71205000   
O      16.54036000      20.09920000       8.60821000   
O      21.99536000      23.62109000       6.67510000   
O      23.62109000      20.09920000       4.77894000   
O      18.16609000      16.54036000       6.67510000   
O      23.62109000      20.06225000       8.60821000   
O      18.69060000      18.69060000       8.08370000   
O      18.69060000      21.47085000       5.30345000   
O      21.47085000      18.69060000       5.30345000   
O      21.12010000      21.12010000       5.65420000   
O      21.12010000      19.04135000       7.73295000   
O      19.04135000      21.12010000       7.73295000   
Zr      20.08073000      20.08073000       9.17448000   
Zr      20.08073000      20.08073000       4.21267000   
Zr      20.08073000      17.59982000       6.69358000   
Zr      22.56163000      20.08073000       6.69358000   
Zr      20.08073000      22.56163000       6.69358000   
Zr      17.59982000      20.08073000       6.69358000   
H       6.43922000      11.25565000      25.90414000   
H      19.82637000       9.47007000      14.29881000   
H       0.87016000      11.25565000      20.33508000   
H      25.86264000       9.47007000      20.33508000   
H       0.91166000      17.30423000      20.33508000   
H      14.29881000       9.47007000      19.82637000   
H      12.47549000      17.30423000      19.82637000   
H       3.91708000      19.82637000      25.86264000   
H       6.94793000      14.29881000      17.30423000   
H      22.85722000       6.94793000      25.86264000   
H      20.33508000      12.47549000      22.85722000   
H       9.47007000      19.82637000      14.29881000   
H      19.82637000      12.47549000      17.30423000   
H      17.30423000       6.94793000      14.29881000   
H       6.43922000      14.29881000      22.85722000   
H      25.90414000      15.51865000      20.33508000   
H      12.51699000      11.25565000      19.82637000   
H      14.25731000      15.51865000      19.82637000   
H      15.51865000      19.82637000      14.25731000   
H       6.94793000      12.51699000      15.51865000   
H      11.25565000       6.94793000      14.25731000   
H      20.33508000      14.25731000      24.64280000   
H      24.64280000      19.82637000      25.90414000   
H      19.82637000      14.25731000      15.51865000   
H       2.13150000       6.94793000      25.90414000   
H       6.43922000      12.51699000      24.64280000   
H       6.94793000      17.30423000      14.29881000   
H      20.33508000       9.47007000      25.86264000   
H       6.43922000      17.30423000      25.86264000   
H      17.30423000      12.47549000      19.82637000   
H      14.29881000       6.94793000      17.30423000   
H       9.47007000      14.29881000      19.82637000   
H       0.91166000      19.82637000      22.85722000   
H      22.85722000      12.47549000      20.33508000   
H      12.47549000      19.82637000      17.30423000   
H       3.91708000      14.29881000      20.33508000   
H      25.86264000       6.94793000      22.85722000   
H      20.33508000      15.51865000      25.90414000   
H       6.94793000      11.25565000      14.25731000   
H      19.82637000      15.51865000      14.25731000   
H      15.51865000      14.25731000      19.82637000   
H      12.51699000       6.94793000      15.51865000   
H      11.25565000      12.51699000      19.82637000   
H      25.90414000      19.82637000      24.64280000   
H      24.64280000      14.25731000      20.33508000   
H      14.25731000      19.82637000      15.51865000   
H       2.13150000      12.51699000      20.33508000   
H       0.87016000       6.94793000      24.64280000   
H      18.12031000       4.73316000      22.04114000   
H      18.12031000       8.65399000      18.12031000   
H      22.04114000       8.65399000      22.04114000   
H      22.04114000       4.73316000      18.12031000   
C      20.04592000      11.52098000      13.57109000   
C      20.02878000      10.53194000      14.54782000   
C      26.25461000      12.86746000      19.86385000   
C      24.26287000      10.87572000      19.92061000   
C      23.21733000       9.83018000      19.98755000   
C      26.59036000      11.52098000      20.11553000   
C      25.61363000      10.53194000      20.13267000   
C       1.16067000      16.24236000      20.13267000   
C      14.54782000      10.53194000      20.02878000   
C      12.22648000      16.24236000      20.02878000   
C       2.85521000      20.02878000      25.61363000   
C       6.74552000      14.54782000      16.24236000   
C      23.91909000       6.74552000      25.61363000   
C      20.13267000      12.22648000      23.91909000   
C      10.53194000      20.02878000      14.54782000   
C      20.02878000      12.22648000      16.24236000   
C      16.24236000       6.74552000      14.54782000   
C       6.64163000      14.54782000      23.91909000   
C       0.18394000      15.25332000      20.11553000   
C      13.57109000      11.52098000      20.04592000   
C      13.20321000      15.25332000      20.04592000   
C       1.86617000      20.04592000      26.59036000   
C       6.72838000      13.57109000      15.25332000   
C      24.90813000       6.72838000      26.59036000   
C      20.11553000      13.20321000      24.90813000   
C      11.52098000      20.04592000      13.57109000   
C      20.04592000      13.20321000      15.25332000   
C      15.25332000       6.72838000      13.57109000   
C       6.65877000      13.57109000      24.90813000   
C      16.94412000       3.55697000      19.98755000   
C      16.94412000       9.83018000      20.17390000   
C      23.21733000       3.55697000      20.17390000   
C      16.94412000       6.78675000      23.21733000   
C      19.98755000       3.55697000      16.94412000   
C      23.21733000       6.60040000      23.21733000   
C      19.98755000       9.83018000      23.21733000   
C      23.21733000       6.78675000      16.94412000   
C      20.17390000       9.83018000      16.94412000   
C      16.94412000       6.60040000      16.94412000   
C      20.17390000       3.55697000      23.21733000   
C       2.51143000      15.89858000      19.92061000   
C      15.89858000      10.87572000      20.24084000   
C      10.87572000      15.89858000      20.24084000   
C       2.51143000      20.24084000      24.26287000   
C       6.53346000      15.89858000      15.89858000   
C      24.26287000       6.53346000      24.26287000   
C      19.92061000      10.87572000      24.26287000   
C      10.87572000      20.24084000      15.89858000   
C      20.24084000      10.87572000      15.89858000   
C      15.89858000       6.53346000      15.89858000   
C       6.85369000      15.89858000      24.26287000   
C       0.51969000      13.90684000      19.86385000   
C      13.90684000      12.86746000      20.29760000   
C      12.86746000      13.90684000      20.29760000   
C       0.51969000      20.29760000      26.25461000   
C       6.47670000      13.90684000      13.90684000   
C      26.25461000       6.47670000      26.25461000   
C      19.86385000      12.86746000      26.25461000   
C      12.86746000      20.29760000      13.90684000   
C      20.29760000      12.86746000      13.90684000   
C      13.90684000       6.47670000      13.90684000   
C       6.91045000      13.90684000      26.25461000   
C       6.74552000      16.24236000      14.54782000   
C      20.13267000      10.53194000      25.61363000   
C       6.64163000      16.24236000      25.61363000   
C      16.24236000      12.22648000      20.02878000   
C      14.54782000       6.74552000      16.24236000   
C      10.53194000      14.54782000      20.02878000   
C       1.16067000      20.02878000      23.91909000   
C      23.91909000      12.22648000      20.13267000   
C      12.22648000      20.02878000      16.24236000   
C       2.85521000      14.54782000      20.13267000   
C      25.61363000       6.74552000      23.91909000   
C       6.72838000      15.25332000      13.57109000   
C      20.11553000      11.52098000      26.59036000   
C       6.65877000      15.25332000      26.59036000   
C      15.25332000      13.20321000      20.04592000   
C      13.57109000       6.72838000      15.25332000   
C      11.52098000      13.57109000      20.04592000   
C       0.18394000      20.04592000      24.90813000   
C      24.90813000      13.20321000      20.11553000   
C      13.20321000      20.04592000      15.25332000   
C       1.86617000      13.57109000      20.11553000   
C      26.59036000       6.72838000      24.90813000   
O      19.04135000       5.65420000      19.04135000   
O      21.47085000       8.08370000      21.47085000   
O      20.09920000       8.60821000      16.54036000   
O      23.62109000       8.60821000      20.06225000   
O      16.54036000       4.77894000      20.06225000   
O      16.54036000       8.60821000      20.09920000   
O      23.62109000       4.77894000      20.09920000   
O      18.16609000       6.71205000      23.62109000   
O      20.06225000       3.15321000      18.16609000   
O      21.99536000       6.67510000      23.62109000   
O      20.06225000      10.23394000      21.99536000   
O      21.99536000       6.71205000      16.54036000   
O      20.09920000      10.23394000      18.16609000   
O      18.16609000       6.67510000      16.54036000   
O      20.09920000       3.15321000      21.99536000   
O      20.06225000       4.77894000      16.54036000   
O      20.06225000       8.60821000      23.62109000   
O      20.09920000       4.77894000      23.62109000   
O      18.16609000      10.23394000      20.09920000   
O      16.54036000       6.67510000      18.16609000   
O      21.99536000       3.15321000      20.09920000   
O      16.54036000       6.71205000      21.99536000   
O      21.99536000      10.23394000      20.06225000   
O      23.62109000       6.71205000      18.16609000   
O      18.16609000       3.15321000      20.06225000   
O      23.62109000       6.67510000      21.99536000   
O      18.69060000       5.30345000      21.47085000   
O      18.69060000       8.08370000      18.69060000   
O      21.47085000       5.30345000      18.69060000   
O      21.12010000       7.73295000      19.04135000   
O      21.12010000       5.65420000      21.12010000   
O      19.04135000       7.73295000      21.12010000   
Zr      20.08073000       6.69358000      22.56163000   
Zr      20.08073000       6.69358000      17.59982000   
Zr      20.08073000       4.21267000      20.08073000   
Zr      22.56163000       6.69358000      20.08073000   
Zr      20.08073000       9.17448000      20.08073000   
Zr      17.59982000       6.69358000      20.08073000   
