174
18.7674 0.0 0.0 9.383700000000001 16.253045162984073 0.0 9.383700000000001 5.4176817209946915 15.323517932903002
H      19.64519000      11.15947000      12.38912000     
H      19.67372000       9.35866000      14.18277000     
H      14.15198000      11.15947000       6.89591000     
H      12.35833000       9.35866000       6.86738000     
H      14.18277000      17.18244000       6.86738000     
H       4.79907000       3.94097828       4.35020207     
H      21.74203000      11.76475828       4.35020207     
H      17.18244000      19.67372000      12.35833000     
H      16.25108000       8.76508828       1.85892207     
H       9.35866000       6.86738000      12.35833000     
H      25.63478000      12.35833000       9.35866000     
H      28.12606000      19.67372000      14.18277000     
H      10.29002000       6.94064828       1.85892207     
H      17.18244000       6.86738000      14.18277000     
H      19.67372000      14.18277000       9.35866000     
H      12.38912000      15.38163000       6.89591000     
H      21.77282000       5.74178828       4.32167207     
H      23.53568000       9.96394828       4.32167207     
H      34.14903000      19.64519000      14.15198000     
H      16.27961000       6.97143828       0.05811207     
H      11.15947000       6.89591000      14.15198000     
H      25.66331000      14.15198000      11.15947000     
H      29.92687000      19.64519000      12.38912000     
H      10.26149000       8.73429828       0.05811207     
H      15.38163000       6.89591000      12.38912000     
H      19.64519000      12.38912000      11.15947000     
H      25.63478000      17.18244000      14.18277000     
H      25.63478000       9.35866000      12.35833000     
H      19.67372000      17.18244000      12.35833000     
H       7.79874000       6.94064828       4.35020207     
H       4.79907000       1.44969828       1.85892207     
H      18.74236000       8.76508828       4.35020207     
H      23.56647000       3.42067484       9.35866000     
H      28.12606000      12.35833000       6.86738000     
H      21.74203000      14.25603828       1.85892207     
H      17.18244000      14.18277000       6.86738000     
H      12.35833000       6.86738000       9.35866000     
H      25.66331000      15.38163000      12.38912000     
H      25.66331000      11.15947000      14.15198000     
H      19.64519000      15.38163000      14.15198000     
H      24.76533000       8.73429828       4.32167207     
H       3.00542000       1.47822828       0.05811207     
H      20.54317000       6.97143828       4.32167207     
H      31.15652000      19.64519000      11.15947000     
H      11.15947000      14.15198000       6.89591000     
H      23.53568000      14.22750828       0.05811207     
H      15.38163000      12.38912000       6.89591000     
H      14.15198000       6.89591000      11.15947000     
H      23.44713000       4.67973000       8.59082000     
H      23.44713000       8.59082000       4.67973000     
H       8.59082000       8.59082000       8.59082000     
H       8.59082000       4.67973000       4.67973000     
C      19.87026000      11.41320000      13.44439000     
C      19.86628000      10.42561000      14.41633000     
C      12.75539000      12.75539000       6.43011000     
C      10.78657000      10.78657000       6.46727000     
C       9.75014000       9.75014000       6.54052000     
C      13.09671000      11.41320000       6.67084000     
C      12.12477000      10.42561000       6.67482000     
C      14.41633000      16.11549000       6.67482000     
C       5.03263000       5.00792828       4.54276207     
C      21.50847000      10.69780828       4.54276207     
C      34.88289000      19.86628000      12.12477000     
C      16.05852000       8.99864828       0.79197207     
C      10.42561000       6.67482000      12.12477000     
C      25.44222000      12.12477000      10.42561000     
C      29.19301000      19.86628000      14.41633000     
C      10.48258000       6.70708828       0.79197207     
C      16.11549000       6.67482000      14.41633000     
C      19.86628000      14.41633000      10.42561000     
C      13.44439000      15.12790000       6.67084000     
C      22.82809000       5.99551828       4.54674207     
C      22.48041000       9.71021828       4.54674207     
C      33.89530000      19.87026000      13.09671000     
C      25.43824000      13.44439000      15.12790000     
C      11.41320000       6.67084000      13.09671000     
C      25.43824000      13.09671000      11.41320000     
C      30.18060000      19.87026000      13.44439000     
C      19.87026000      13.09671000      15.12790000     
C      15.12790000       6.67084000      13.44439000     
C      19.87026000      13.44439000      11.41320000     
C      22.28781000       3.52041000       6.54052000     
C      22.28781000       9.75014000       6.73003000     
C       9.75014000       3.52041000       6.73003000     
C      22.28781000       6.73003000       9.75014000     
C       6.54052000       3.52041000       3.52041000     
C       9.75014000       6.54052000       9.75014000     
C      25.30792000       9.75014000       9.75014000     
C       9.75014000       6.73003000       3.52041000     
C      25.49743000       9.75014000       3.52041000     
C      22.28781000       6.54052000       3.52041000     
C       6.73003000       3.52041000       9.75014000     
C      15.75453000      15.75453000       6.46727000     
C       6.37083000       5.36888828       4.75031207     
C      20.17027000      10.33684828       4.75031207     
C      25.13823000       3.82078484      10.78657000     
C      15.85097000      10.33684828       0.43101207     
C      10.78657000       6.46727000      10.78657000     
C      25.23467000      10.78657000      10.78657000     
C      20.17027000      14.65614828       0.43101207     
C      10.69013000       5.36888828       0.43101207     
C       6.37083000       1.04958828       0.43101207     
C      20.07383000      15.75453000      10.78657000     
C      13.78571000      13.78571000       6.43011000     
C      23.16941000       7.33770828       4.78747207     
C      22.13909000       8.36802828       4.78747207     
C      32.55311000      20.11099000      12.75539000     
C      25.19751000      13.78571000      13.78571000     
C      12.75539000       6.43011000      12.75539000     
C      25.19751000      12.75539000      12.75539000     
C      31.52279000      20.11099000      13.78571000     
C      20.11099000      12.75539000      13.78571000     
C      13.78571000       6.43011000      13.78571000     
C      20.11099000      13.78571000      12.75539000     
C      25.44222000      16.11549000      14.41633000     
C      25.44222000      10.42561000      12.12477000     
C      19.86628000      16.11549000      12.12477000     
C       6.73179000       6.70708828       4.54276207     
C       5.03263000       1.25713828       0.79197207     
C      19.80931000       8.99864828       4.54276207     
C      33.18373000      19.86628000      10.42561000     
C      10.42561000      12.12477000       6.67482000     
C      21.50847000      14.44859828       0.79197207     
C      16.11549000      14.41633000       6.67482000     
C      12.12477000       6.67482000      10.42561000     
C      25.43824000      15.12790000      13.44439000     
C      25.43824000      11.41320000      13.09671000     
C      19.87026000      15.12790000      13.09671000     
C      24.51160000       7.67902828       4.54674207     
C      13.44439000       6.67084000      15.12790000     
C      20.79690000       8.02670828       4.54674207     
C      32.21179000      19.87026000      11.41320000     
C      11.41320000      13.09671000       6.67084000     
C      31.86411000      19.87026000      15.12790000     
C      15.12790000      13.44439000       6.67084000     
C      13.09671000       6.67084000      11.41320000     
O       5.59858000       5.59858000       5.59858000     
O       8.02364000       8.02364000       8.02364000     
O       6.63979000       8.53190000       3.11354000     
O      10.15701000       8.53190000       6.63076000     
O      21.88094000       4.73865000       6.63076000     
O      21.88094000       8.53190000       6.63979000     
O      10.15701000       4.73865000       6.63979000     
O      23.50605000       6.63979000      10.15701000     
O       6.63076000       3.11354000       4.73865000     
O       8.53190000       6.63076000      10.15701000     
O      25.39816000      10.15701000       8.53190000     
O       8.53190000       6.63979000       3.11354000     
O      25.40719000      10.15701000       4.73865000     
O      23.50605000       6.63076000       3.11354000     
O       6.63979000       3.11354000       8.53190000     
O       6.63076000       4.73865000       3.11354000     
O      25.39816000       8.53190000      10.15701000     
O      25.40719000       4.73865000      10.15701000     
O      23.50605000      10.15701000       6.63979000     
O      21.88094000       6.63076000       4.73865000     
O       8.53190000       3.11354000       6.63979000     
O      21.88094000       6.63979000       8.53190000     
O      27.29930000      10.15701000       6.63076000     
O      10.15701000       6.63979000       4.73865000     
O       4.73865000       3.11354000       6.63076000     
O      10.15701000       6.63076000       8.53190000     
O      24.01431000       5.24691000       8.02364000     
O      24.01431000       8.02364000       5.24691000     
O       8.02364000       5.24691000       5.24691000     
O       7.67197000       7.67197000       5.59858000     
O       7.67197000       5.59858000       7.67197000     
O      24.36598000       7.67197000       7.67197000     
Zr      25.40268000       6.63528000       9.10758000     
Zr       6.63528000       6.63528000       4.16297000     
Zr       6.63528000       4.16297000       6.63528000     
Zr       9.10758000       6.63528000       6.63528000     
Zr      25.40268000       9.10758000       6.63528000     
Zr      22.93037000       6.63528000       6.63528000     
