540
33.0968 0.0 0.0 16.548400000000004 28.662669583972807 0.0 16.548400000000004 9.554223194657604 27.02342403964876
Zn      23.40300000      23.40300000      16.55332000    
Zn      39.95140000      13.84877681       3.22925596    
Zn      49.65012000      23.40300000      23.40300000    
Zn      23.40300000      16.55332000      23.40300000    
Zn      30.25268000      23.40300000      23.40300000    
Zn      56.49980000      30.25268000      23.40300000    
Zn      23.40300000      23.40300000      13.58759000    
Zn      39.95140000      13.84877681       6.19498596    
Zn      46.68439000      23.40300000      23.40300000    
Zn      23.40300000      13.58759000      23.40300000    
Zn      33.21841000      23.40300000      23.40300000    
Zn      56.49980000      33.21841000      23.40300000    
O      23.40300000      21.40485000      16.19628000     
O      25.40115000      23.40300000      16.19628000     
O      23.40300000      25.40115000      16.19628000     
O      21.40485000      23.40300000      16.19628000     
O      39.95140000      15.84692681       3.58629596     
O      37.95325000      13.84877681       3.58629596     
O      39.95140000      11.85062681       3.58629596     
O      41.94955000      13.84877681       3.58629596     
O      49.29308000      23.40300000      21.40485000     
O      23.40300000      16.19628000      21.40485000     
O      30.60972000      23.40300000      21.40485000     
O      56.49980000      30.60972000      21.40485000     
O      49.29308000      23.40300000      25.40115000     
O      23.40300000      16.19628000      25.40115000     
O      30.60972000      23.40300000      25.40115000     
O      56.49980000      30.60972000      25.40115000     
O      21.40485000      16.19628000      23.40300000     
O      30.60972000      25.40115000      23.40300000     
O      30.60972000      21.40485000      23.40300000     
O      49.29308000      21.40485000      23.40300000     
O      49.29308000      25.40115000      23.40300000     
O      54.50165000      30.60972000      23.40300000     
O      58.49795000      30.60972000      23.40300000     
O      25.40115000      16.19628000      23.40300000     
O      23.40300000      21.41468000      13.95802000     
O      25.39132000      23.40300000      13.95802000     
O      23.40300000      25.39132000      13.95802000     
O      21.41468000      23.40300000      13.95802000     
O      39.95140000      15.83709681       5.82455596     
O      37.96308000      13.84877681       5.82455596     
O      39.95140000      11.86045681       5.82455596     
O      41.93972000      13.84877681       5.82455596     
O      47.05482000      23.40300000      21.41468000     
O      23.40300000      13.95802000      21.41468000     
O      32.84798000      23.40300000      21.41468000     
O      56.49980000      32.84798000      21.41468000     
O      47.05482000      23.40300000      25.39132000     
O      23.40300000      13.95802000      25.39132000     
O      32.84798000      23.40300000      25.39132000     
O      56.49980000      32.84798000      25.39132000     
O      21.41468000      13.95802000      23.40300000     
O      32.84798000      25.39132000      23.40300000     
O      32.84798000      21.41468000      23.40300000     
O      47.05482000      21.41468000      23.40300000     
O      47.05482000      25.39132000      23.40300000     
O      54.51148000      32.84798000      23.40300000     
O      58.48812000      32.84798000      23.40300000     
O      25.39132000      13.95802000      23.40300000     
O      23.40300000      23.40300000      11.60040000     
O      39.95140000      13.84877681       8.18217596     
O      44.69720000      23.40300000      23.40300000     
O      23.40300000      11.60040000      23.40300000     
O      35.20560000      23.40300000      23.40300000     
O      56.49980000      35.20560000      23.40300000     
O      23.40300000      23.40300000      18.54781000     
O      39.95140000      13.84877681       1.23476596     
O      51.64461000      23.40300000      23.40300000     
O      23.40300000      18.54781000      23.40300000     
O      28.25819000      23.40300000      23.40300000     
O      56.49980000      28.25819000      23.40300000     
N      23.40300000      15.21897000      15.21897000     
N      31.58703000      23.40300000      15.21897000     
N      56.49980000      31.58703000      15.21897000     
N      48.31577000      23.40300000      15.21897000     
N      39.95140000      22.03280681       4.56360596     
N      31.76737000      13.84877681       4.56360596     
N       6.85460000       5.66474681       4.56360596     
N      15.03863000      13.84877681       4.56360596     
N      48.31577000      15.21897000      23.40300000     
N      31.58703000      31.58703000      23.40300000     
N      31.58703000      15.21897000      23.40300000     
N      48.31577000      31.58703000      23.40300000     
C      23.40300000      20.84458000      15.06592000     
C      25.96142000      23.40300000      15.06592000     
C      23.40300000      25.96142000      15.06592000     
C      20.84458000      23.40300000      15.06592000     
C      39.95140000      16.40719681       4.71665596     
C      37.39298000      13.84877681       4.71665596     
C      39.95140000      11.29035681       4.71665596     
C      42.50982000      13.84877681       4.71665596     
C      48.16272000      23.40300000      20.84458000     
C      23.40300000      15.06592000      20.84458000     
C      31.74008000      23.40300000      20.84458000     
C      56.49980000      31.74008000      20.84458000     
C      48.16272000      23.40300000      25.96142000     
C      23.40300000      15.06592000      25.96142000     
C      31.74008000      23.40300000      25.96142000     
C      56.49980000      31.74008000      25.96142000     
C      20.84458000      15.06592000      23.40300000     
C      31.74008000      25.96142000      23.40300000     
C      31.74008000      20.84458000      23.40300000     
C      48.16272000      20.84458000      23.40300000     
C      48.16272000      25.96142000      23.40300000     
C      53.94138000      31.74008000      23.40300000     
C      59.05822000      31.74008000      23.40300000     
C      25.96142000      15.06592000      23.40300000     
C      23.40300000      19.33603000      15.06357000     
C      27.46997000      23.40300000      15.06357000     
C      23.40300000      27.46997000      15.06357000     
C      52.43283000      23.40300000      15.06357000     
C      39.95140000      17.91574681       4.71900596     
C      35.88443000      13.84877681       4.71900596     
C      39.95140000       9.78180681       4.71900596     
C      10.92157000      13.84877681       4.71900596     
C      48.16037000      23.40300000      19.33603000     
C      23.40300000      15.06357000      19.33603000     
C      31.74243000      23.40300000      19.33603000     
C      56.49980000      31.74243000      19.33603000     
C      31.61197000      13.84877681       0.44654596     
C       6.85460000       5.50934681       0.44654596     
C      15.19403000      13.84877681       0.44654596     
C      39.95140000      22.18820681       0.44654596     
C      19.33603000      15.06357000      23.40300000     
C      31.74243000      27.46997000      23.40300000     
C      31.74243000      19.33603000      23.40300000     
C      48.16037000      19.33603000      23.40300000     
C      48.16037000      27.46997000      23.40300000     
C      52.43283000      31.74243000      23.40300000     
C      60.56677000      31.74243000      23.40300000     
C      27.46997000      15.06357000      23.40300000     
C      23.40300000      18.63113000      16.26743000     
C      28.17487000      23.40300000      16.26743000     
C      23.40300000      28.17487000      16.26743000     
C      51.72793000      23.40300000      16.26743000     
C      39.95140000      18.62064681       3.51514596     
C      35.17953000      13.84877681       3.51514596     
C       6.85460000       9.07690681       3.51514596     
C      11.62647000      13.84877681       3.51514596     
C      49.36423000      23.40300000      18.63113000     
C      23.40300000      16.26743000      18.63113000     
C      30.53857000      23.40300000      18.63113000     
C      56.49980000      30.53857000      18.63113000     
C      32.81583000      13.84877681       1.15144596     
C       6.85460000       6.71320681       1.15144596     
C      13.99017000      13.84877681       1.15144596     
C      39.95140000      20.98434681       1.15144596     
C      51.72793000      16.26743000      23.40300000     
C      30.53857000      28.17487000      23.40300000     
C      30.53857000      18.63113000      23.40300000     
C      49.36423000      18.63113000      23.40300000     
C      49.36423000      28.17487000      23.40300000     
C      51.72793000      30.53857000      23.40300000     
C      28.17487000      30.53857000      23.40300000     
C      28.17487000      16.26743000      23.40300000     
H      23.40300000      19.08281000      17.07951000     
H      27.72319000      23.40300000      17.07951000     
H      23.40300000      27.72319000      17.07951000     
H      52.17961000      23.40300000      17.07951000     
H      39.95140000      18.16896681       2.70306596     
H      35.63121000      13.84877681       2.70306596     
H       6.85460000       9.52858681       2.70306596     
H      11.17479000      13.84877681       2.70306596     
H      50.17631000      23.40300000      19.08281000     
H      23.40300000      17.07951000      19.08281000     
H      29.72649000      23.40300000      19.08281000     
H      56.49980000      29.72649000      19.08281000     
H      33.62791000      13.84877681       0.69976596     
H       6.85460000       7.52528681       0.69976596     
H      13.17809000      13.84877681       0.69976596     
H      39.95140000      20.17226681       0.69976596     
H      52.17961000      17.07951000      23.40300000     
H      29.72649000      27.72319000      23.40300000     
H      29.72649000      19.08281000      23.40300000     
H      50.17631000      19.08281000      23.40300000     
H      50.17631000      27.72319000      23.40300000     
H      52.17961000      29.72649000      23.40300000     
H      27.72319000      29.72649000      23.40300000     
H      27.72319000      17.07951000      23.40300000     
C      23.40300000      17.25831000      16.22436000     
C      29.54769000      23.40300000      16.22436000     
C      56.49980000      29.54769000      16.22436000     
C      50.35511000      23.40300000      16.22436000     
C      39.95140000      19.99346681       3.55821596     
C      33.80671000      13.84877681       3.55821596     
C       6.85460000       7.70408681       3.55821596     
C      12.99929000      13.84877681       3.55821596     
C      49.32116000      23.40300000      17.25831000     
C      23.40300000      16.22436000      17.25831000     
C      30.58164000      23.40300000      17.25831000     
C      56.49980000      30.58164000      17.25831000     
C      32.77276000      13.84877681       2.52426596     
C       6.85460000       6.67013681       2.52426596     
C      14.03324000      13.84877681       2.52426596     
C      39.95140000      21.02741681       2.52426596     
C      50.35511000      16.22436000      23.40300000     
C      30.58164000      29.54769000      23.40300000     
C      30.58164000      17.25831000      23.40300000     
C      49.32116000      17.25831000      23.40300000     
C      49.32116000      29.54769000      23.40300000     
C      50.35511000      30.58164000      23.40300000     
C      29.54769000      30.58164000      23.40300000     
C      29.54769000      16.22436000      23.40300000     
C      23.40300000      16.58524000      14.97184000     
C      30.22076000      23.40300000      14.97184000     
C      56.49980000      30.22076000      14.97184000     
C      49.68204000      23.40300000      14.97184000     
C      39.95140000      20.66653681       4.81073596     
C      33.13364000      13.84877681       4.81073596     
C       6.85460000       7.03101681       4.81073596     
C      13.67236000      13.84877681       4.81073596     
C      48.06864000      23.40300000      16.58524000     
C      23.40300000      14.97184000      16.58524000     
C      31.83416000      23.40300000      16.58524000     
C      56.49980000      31.83416000      16.58524000     
C      31.52024000      13.84877681       3.19733596     
C       6.85460000       5.41761681       3.19733596     
C      15.28576000      13.84877681       3.19733596     
C      39.95140000      22.27993681       3.19733596     
C      49.68204000      14.97184000      23.40300000     
C      31.83416000      30.22076000      23.40300000     
C      31.83416000      16.58524000      23.40300000     
C      48.06864000      16.58524000      23.40300000     
C      48.06864000      30.22076000      23.40300000     
C      49.68204000      31.83416000      23.40300000     
C      30.22076000      31.83416000      23.40300000     
C      30.22076000      14.97184000      23.40300000     
C      23.40300000      17.28078000      13.77454000     
C      29.52522000      23.40300000      13.77454000     
C      23.40300000      29.52522000      13.77454000     
C      50.37758000      23.40300000      13.77454000     
C      39.95140000      19.97099681       6.00803596     
C      33.82918000      13.84877681       6.00803596     
C      39.95140000       7.72655681       6.00803596     
C      12.97682000      13.84877681       6.00803596     
C      46.87134000      23.40300000      17.28078000     
C      23.40300000      13.77454000      17.28078000     
C      33.03146000      23.40300000      17.28078000     
C      56.49980000      33.03146000      17.28078000     
C      30.32294000      13.84877681       2.50179596     
C       6.85460000       4.22031681       2.50179596     
C      16.48306000      13.84877681       2.50179596     
C      39.95140000      23.47723681       2.50179596     
C      50.37758000      13.77454000      23.40300000     
C      33.03146000      29.52522000      23.40300000     
C      33.03146000      17.28078000      23.40300000     
C      46.87134000      17.28078000      23.40300000     
C      46.87134000      29.52522000      23.40300000     
C      50.37758000      33.03146000      23.40300000     
C      29.52522000      33.03146000      23.40300000     
C      29.52522000      13.77454000      23.40300000     
H      23.40300000      16.83612000      12.95590000     
H      29.96988000      23.40300000      12.95590000     
H      23.40300000      29.96988000      12.95590000     
H      49.93292000      23.40300000      12.95590000     
H      39.95140000      20.41565681       6.82667596     
H      33.38452000      13.84877681       6.82667596     
H      39.95140000       7.28189681       6.82667596     
H      13.42148000      13.84877681       6.82667596     
H      46.05270000      23.40300000      16.83612000     
H      23.40300000      12.95590000      16.83612000     
H      33.85010000      23.40300000      16.83612000     
H      56.49980000      33.85010000      16.83612000     
H      29.50430000      13.84877681       2.94645596     
H       6.85460000       3.40167681       2.94645596     
H      17.30170000      13.84877681       2.94645596     
H      39.95140000      24.29587681       2.94645596     
H      49.93292000      12.95590000      23.40300000     
H      33.85010000      29.96988000      23.40300000     
H      33.85010000      16.83612000      23.40300000     
H      46.05270000      16.83612000      23.40300000     
H      46.05270000      29.96988000      23.40300000     
H      49.93292000      33.85010000      23.40300000     
H      29.96988000      33.85010000      23.40300000     
H      29.96988000      12.95590000      23.40300000     
C      23.40300000      18.63862000      13.84475000     
C      28.16738000      23.40300000      13.84475000     
C      23.40300000      28.16738000      13.84475000     
C      51.73542000      23.40300000      13.84475000     
C      39.95140000      18.61315681       5.93782596     
C      35.18702000      13.84877681       5.93782596     
C      39.95140000       9.08439681       5.93782596     
C      11.61898000      13.84877681       5.93782596     
C      46.94155000      23.40300000      18.63862000     
C      23.40300000      13.84475000      18.63862000     
C      32.96125000      23.40300000      18.63862000     
C      56.49980000      32.96125000      18.63862000     
C      30.39315000      13.84877681       1.14395596     
C       6.85460000       4.29052681       1.14395596     
C      16.41285000      13.84877681       1.14395596     
C      39.95140000      23.40702681       1.14395596     
C      18.63862000      13.84475000      23.40300000     
C      32.96125000      28.16738000      23.40300000     
C      32.96125000      18.63862000      23.40300000     
C      46.94155000      18.63862000      23.40300000     
C      46.94155000      28.16738000      23.40300000     
C      51.73542000      32.96125000      23.40300000     
C      61.26418000      32.96125000      23.40300000     
C      28.16738000      13.84475000      23.40300000     
H      23.40300000      19.12493000      13.05419000     
H      27.68107000      23.40300000      13.05419000     
H      23.40300000      27.68107000      13.05419000     
H      19.12493000      23.40300000      13.05419000     
H      39.95140000      18.12684681       6.72838596     
H      35.67333000      13.84877681       6.72838596     
H      39.95140000       9.57070681       6.72838596     
H      11.13267000      13.84877681       6.72838596     
H      46.15099000      23.40300000      19.12493000     
H      23.40300000      13.05419000      19.12493000     
H      33.75181000      23.40300000      19.12493000     
H      56.49980000      33.75181000      19.12493000     
H      29.60259000      13.84877681       0.65764596     
H       6.85460000       3.49996681       0.65764596     
H      17.20341000      13.84877681       0.65764596     
H      39.95140000      24.19758681       0.65764596     
H      19.12493000      13.05419000      23.40300000     
H      33.75181000      27.68107000      23.40300000     
H      33.75181000      19.12493000      23.40300000     
H      46.15099000      19.12493000      23.40300000     
H      46.15099000      27.68107000      23.40300000     
H      52.22173000      33.75181000      23.40300000     
H      60.77787000      33.75181000      23.40300000     
H      27.68107000      13.05419000      23.40300000     
C      23.40300000      14.18175000      14.18175000     
C      32.62425000      23.40300000      14.18175000     
C      56.49980000      32.62425000      14.18175000     
C      47.27855000      23.40300000      14.18175000     
C      39.95140000      23.07002681       5.60082596     
C      30.73015000      13.84877681       5.60082596     
C       6.85460000       4.62752681       5.60082596     
C      16.07585000      13.84877681       5.60082596     
C      47.27855000      14.18175000      23.40300000     
C      32.62425000      32.62425000      23.40300000     
C      32.62425000      14.18175000      23.40300000     
C      47.27855000      32.62425000      23.40300000     
C      24.42665000      14.14337000      13.30741000     
C      32.66263000      24.42665000      13.30741000     
C      55.47615000      32.66263000      13.30741000     
C      47.24017000      22.37935000      13.30741000     
C      40.97505000      23.10840681       6.47516596     
C      30.69177000      14.87242681       6.47516596     
C       5.83095000       4.58914681       6.47516596     
C      16.11423000      12.82512681       6.47516596     
C      46.40421000      24.42665000      14.14337000     
C      22.37935000      13.30741000      14.14337000     
C      33.49859000      22.37935000      14.14337000     
C      57.52345000      33.49859000      14.14337000     
C      29.85581000      12.82512681       5.63920596     
C       7.87825000       3.75318681       5.63920596     
C      16.95019000      14.87242681       5.63920596     
C      38.92775000      23.94436681       5.63920596     
C      47.24017000      13.30741000      24.42665000     
C      33.49859000      32.66263000      22.37935000     
C      33.49859000      14.14337000      24.42665000     
C      46.40421000      14.14337000      22.37935000     
C      46.40421000      32.66263000      24.42665000     
C      47.24017000      33.49859000      22.37935000     
C      32.66263000      33.49859000      24.42665000     
C      32.66263000      13.30741000      22.37935000     
C      38.92775000      23.10840681       6.47516596     
C      30.69177000      12.82512681       6.47516596     
C       7.87825000       4.58914681       6.47516596     
C      16.11423000      14.87242681       6.47516596     
C      22.37935000      14.14337000      13.30741000     
C      32.66263000      22.37935000      13.30741000     
C      24.42665000      32.66263000      13.30741000     
C      47.24017000      24.42665000      13.30741000     
C      16.95019000      12.82512681       5.63920596     
C      40.97505000      23.94436681       5.63920596     
C      29.85581000      14.87242681       5.63920596     
C       5.83095000       3.75318681       5.63920596     
C      33.49859000      24.42665000      14.14337000     
C      55.47615000      33.49859000      14.14337000     
C      46.40421000      22.37935000      14.14337000     
C      24.42665000      13.30741000      14.14337000     
C      32.66263000      33.49859000      22.37935000     
C      46.40421000      14.14337000      24.42665000     
C      46.40421000      32.66263000      22.37935000     
C      33.49859000      32.66263000      24.42665000     
C      33.49859000      14.14337000      22.37935000     
C      32.66263000      13.30741000      24.42665000     
C      47.24017000      13.30741000      22.37935000     
C      47.24017000      33.49859000      24.42665000     
H      25.13014000      14.74857000      13.34907000     
H      32.05743000      25.13014000      13.34907000     
H      54.77266000      32.05743000      13.34907000     
H      47.84537000      21.67586000      13.34907000     
H      41.67854000      22.50320681       6.43350596     
H      31.29697000      15.57591681       6.43350596     
H      38.22426000       5.19434681       6.43350596     
H      15.50903000      12.12163681       6.43350596     
H      46.44587000      25.13014000      14.74857000     
H      21.67586000      13.34907000      14.74857000     
H      33.45693000      21.67586000      14.74857000     
H      58.22694000      33.45693000      14.74857000     
H      29.89747000      12.12163681       5.03400596     
H       8.58174000       3.79484681       5.03400596     
H      16.90853000      15.57591681       5.03400596     
H      38.22426000      23.90270681       5.03400596     
H      47.84537000      13.34907000      25.13014000     
H      33.45693000      32.05743000      21.67586000     
H      33.45693000      14.74857000      25.13014000     
H      46.44587000      14.74857000      21.67586000     
H      46.44587000      32.05743000      25.13014000     
H      47.84537000      33.45693000      21.67586000     
H      32.05743000      33.45693000      25.13014000     
H      32.05743000      13.34907000      21.67586000     
H      38.22426000      22.50320681       6.43350596     
H      31.29697000      12.12163681       6.43350596     
H       8.58174000       5.19434681       6.43350596     
H      15.50903000      15.57591681       6.43350596     
H      21.67586000      14.74857000      13.34907000     
H      32.05743000      21.67586000      13.34907000     
H      25.13014000      32.05743000      13.34907000     
H      47.84537000      25.13014000      13.34907000     
H      16.90853000      12.12163681       5.03400596     
H      41.67854000      23.90270681       5.03400596     
H      29.89747000      15.57591681       5.03400596     
H       5.12746000       3.79484681       5.03400596     
H      33.45693000      25.13014000      14.74857000     
H      54.77266000      33.45693000      14.74857000     
H      46.44587000      21.67586000      14.74857000     
H      25.13014000      13.34907000      14.74857000     
H      32.05743000      33.45693000      21.67586000     
H      46.44587000      14.74857000      25.13014000     
H      46.44587000      32.05743000      21.67586000     
H      33.45693000      32.05743000      25.13014000     
H      33.45693000      14.74857000      21.67586000     
H      32.05743000      13.34907000      25.13014000     
H      47.84537000      13.34907000      21.67586000     
H      47.84537000      33.45693000      25.13014000     
C      24.36252000      13.10942000      12.30717000     
C      33.69658000      24.36252000      12.30717000     
C      38.99188000       5.03391042      12.30717000     
C      46.20622000      22.44348000      12.30717000     
C      40.91092000      24.14235681       7.47540596     
C      29.65782000      14.80829681       7.47540596     
C       5.89508000       3.55519681       7.47540596     
C      17.14818000      12.88925681       7.47540596     
C      45.40397000      24.36252000      13.10942000     
C      22.44348000      12.30717000      13.10942000     
C      34.49883000      22.44348000      13.10942000     
C      40.91092000       5.83616042      13.10942000     
C      28.85557000      12.88925681       6.67315596     
C       7.81412000       2.75294681       6.67315596     
C      17.95043000      14.80829681       6.67315596     
C      38.99188000      24.94460681       6.67315596     
C      46.20622000      12.30717000      24.36252000     
C      34.49883000      33.69658000      22.44348000     
C      34.49883000      13.10942000      24.36252000     
C      45.40397000      13.10942000      22.44348000     
C      45.40397000      33.69658000      24.36252000     
C      46.20622000      34.49883000      22.44348000     
C      33.69658000      34.49883000      24.36252000     
C      33.69658000      12.30717000      22.44348000     
C      38.99188000      24.14235681       7.47540596     
C      29.65782000      12.88925681       7.47540596     
C       7.81412000       3.55519681       7.47540596     
C      17.14818000      14.80829681       7.47540596     
C      22.44348000      13.10942000      12.30717000     
C      33.69658000      22.44348000      12.30717000     
C      40.91092000       5.03391042      12.30717000     
C      46.20622000      24.36252000      12.30717000     
C      17.95043000      12.88925681       6.67315596     
C      40.91092000      24.94460681       6.67315596     
C      28.85557000      14.80829681       6.67315596     
C       5.89508000       2.75294681       6.67315596     
C      34.49883000      24.36252000      13.10942000     
C      38.99188000       5.83616042      13.10942000     
C      45.40397000      22.44348000      13.10942000     
C      24.36252000      12.30717000      13.10942000     
C      33.69658000      34.49883000      22.44348000     
C      45.40397000      13.10942000      24.36252000     
C      45.40397000      33.69658000      22.44348000     
C      34.49883000      33.69658000      24.36252000     
C      34.49883000      13.10942000      22.44348000     
C      33.69658000      12.30717000      24.36252000     
C      46.20622000      12.30717000      22.44348000     
C      46.20622000      34.49883000      24.36252000     
H      41.59897000      26.92169681       8.06235596     
H      26.87848000      30.31023958      11.68278000     
H      28.61003000      24.17885681       8.06235596     
H      46.16972000      21.75543000      11.68278000     
H      41.59897000      24.17885681       8.09979596     
H      29.62132000      30.31023958      11.72022000     
H      28.61003000      26.92169681       8.09979596     
H      43.42688000      21.75543000      11.72022000     
H      18.53738000      15.49634681       9.45249596     
H      21.75543000      11.68278000      13.07292000     
H      35.12322000       6.94153722       9.45249596     
H      34.74437000      11.72022000      13.07292000     
H      35.08578000       6.94153722       6.70965596     
H      34.74437000      11.68278000      10.33008000     
H      18.57482000      15.49634681       6.70965596     
H      21.75543000      11.72022000      10.33008000     
H      36.47592000      35.08578000      25.05057000     
H      44.81702000      10.33008000      21.75543000     
H      11.72022000      13.07292000       1.64757000     
H      44.77958000      13.07292000      21.75543000     
H      11.68278000      10.33008000       1.64757000     
H      53.02432000      25.56899681      18.13500596     
H      33.73308000      35.12322000      25.05057000     
H      50.28148000      25.53155681      18.13500596     
H      21.75543000      10.33008000      11.72022000     
H      36.47592000       6.94153722       8.09979596     
H      34.74437000      13.07292000      11.72022000     
H      17.18468000      15.49634681       8.09979596     
H      21.75543000      13.07292000      11.68278000     
H      33.73308000       6.94153722       8.06235596     
H      34.74437000      10.33008000      11.68278000     
H      19.92752000      15.49634681       8.06235596     
H      44.81702000      21.75543000      10.33008000     
H      41.59897000      25.56899681       6.70965596     
H      28.23118000      30.31023958      10.33008000     
H      28.61003000      25.53155681       6.70965596     
H      28.26862000      30.31023958      13.07292000     
H      28.61003000      25.56899681       9.45249596     
H      44.77958000      21.75543000      13.07292000     
H      41.59897000      25.53155681       9.45249596     
H      43.42688000      11.72022000      21.75543000     
H      35.08578000      36.47592000      25.05057000     
H      51.63418000      24.17885681      18.13500596     
H      35.12322000      33.73308000      25.05057000     
H      51.67162000      26.92169681      18.13500596     
H      10.33008000      11.68278000       1.64757000     
H      46.16972000      11.68278000      21.75543000     
H      13.07292000      11.72022000       1.64757000     
C      23.40300000      12.21403000      12.21403000     
C      34.59197000      23.40300000      12.21403000     
C      39.95140000       5.92930042      12.21403000     
C      45.31083000      23.40300000      12.21403000     
C      39.95140000      25.03774681       7.56854596     
C      28.76243000      13.84877681       7.56854596     
C      23.40300000      31.32247639       7.56854596     
C      18.04357000      13.84877681       7.56854596     
C      45.31083000      12.21403000      23.40300000     
C      34.59197000      34.59197000      23.40300000     
C      34.59197000      12.21403000      23.40300000     
C      45.31083000      34.59197000      23.40300000     
